*----------------------------------------------------------------------
* SPICE Netlist Generated by TDK-EPC Corporation
* Copyright(C) 2014 TDK-EPC Corporation.
* All Rights Reserved.
*----------------------------------------------------------------------
* TDK P/N: CEU4J2X7R2A103K125AE (Multilayer Ceramic Chip Capacitor)
* Property: C=10nF
* Size(LxWxT): 2x1.25x1.25mm, 0.079x0.049x0.049inches
* Model Type: Simple Model
* Model Generated on Nov. 25, 2014
*----------------------------------------------------------------------
* Terms and conditions regarding TDK Simulation Models:
* 1)This simulation model is being provided solely for informational
*   purposes. Please refer to the specifications of the products in
*   terms of detailed characteristics of such products.
* 2)In no event shall TDK Corporation of any of its subsidiaries be
*   liable for any loss or damage arising, directly or indirectly,
*   from any information contained in this simulation model, including,
*   but not limited to loss or damages arising from any inaccuracies,
*   omissions or errors in connection with such information.
* 3)Any and all copyrights on this simulation model are owned by
*   TDK-EPC Corporation.  Duplication or redistribution of this
*   simulation model without prior written permission from TDK-EPC
*   Corporation is prohibited.
* 4)This simulation model is subject to any modification or change
*   without any prior notice.
* 5)Neither TDK Corporation nor any of its subsidiaries shall make any
*   warranty, express or implied, including but not limited to the
*   correctness, implied warranties of merchantability and fitness for
*   a particular purpose with respect to this simulation models.
* 6)The use of this simulation model shall be deemed to have consented
*   to the terms and conditions hereof.
*----------------------------------------------------------------------
* External Node Assignments:
*
*  n1 ---| |--- n2
*
*----------------------------------------------------------------------
* Applicable Conditions:
*   Temperature = 25 degC
*   DC Bias Voltage = 0 V
*   Small Signal Operation
*----------------------------------------------------------------------
.SUBCKT CEU4J2X7R2A103K125AE_s n1 n2
C1 n1 11 1.00000000E-08
L1 n2 12 4.80000000E-10
R1 11 12 4.83463677E-02
R2 n1 11 1.00000000E+10
.ENDS CEU4J2X7R2A103K125AE_s
*----------------------------------------------------------------------
